Codigos/Simulacoes/118/06 - EE/ieee118_21_2100_EE.txt
================================================================================= 
=== UFF - Doutorado em Computação - Aplicaçoes em Sistemas de Potencia        === 
=== ESTIMADOR DE ESTADO MÍNIMOS QUADRADOS PONDERADOS INCLUINDO MEDIDAS DE PMU === 
=== Desenvolvido por: Rui Menezes de Moraes - 2009                            === 
================================================================================= 
Arquivo de medidores:          F:\Documents\Uff\Artigos\SimSEP\VERSAO WELDAN V2\Codigos\Med\ieee118_21_2100.med
Arquivo do sistema:            F:\Documents\Uff\Artigos\SimSEP\VERSAO WELDAN V2\Codigos\Carga\ieee118_21_2100.txt
Tolerância entre iteraçoes:     1.00e-04
Limite de iteraçoes:           100

--- DADOS DA REDE --------------------------------------------------------------- 
Data do caso:                  08/25/93
Origem:                        UW ARCHIVE          
MVA base:                      100
Ano:                           1961
Estação:                       W
Identificação:                 IEEE 118 Bus Test Case
Número de barras:              118 
Número de ramos:               186 
Referência na barra:           69

--- TELEMEDIDAS ------------------------------------------------------------------
    Tipo 1 = Fluxo de potencia ativa        Tipo  6 = Módulo da tensão            
    Tipo 2 = Injeção de potencia ativa      Tipo  7 = Corrente de ramo (real)     
    Tipo 3 = Ângulo de fase da tensão       Tipo  8 = Corrente de ramo (imag)     
    Tipo 4 = Fluxo de potencia reativa      Tipo  9 = Injeção de corrente (real)  
    Tipo 5 = Injeção de potencia reativa    Tipo 10 = Injeção de corrente (imag)  
----------------------------------------------------------------------------------
   N    D    P TP  PN ST   Exa   FS       DP      V_Ref      V_Med          E(%) 
----------------------------------------------------------------------------------
   1    0    1  6   0  0 0.015 01.1  0.00485   +0.97070   +0.97873     +0.827238 
   2    0    2  6   0  0 0.015 01.1  0.00490   +0.98076   +0.97838     -0.242669 
   3    0    3  6   0  0 0.015 01.1  0.00489   +0.97856   +0.98803     +0.967749 
   4    0    4  6   0  0 0.015 01.1  0.00499   +0.99800   +0.99457     -0.343687 
   5    0    5  6   0  0 0.015 01.1  0.00500   +0.99967   +1.00061     +0.094031 
   6    0    6  6   0  0 0.015 01.1  0.00495   +0.99000   +0.97647     -1.366667 
   7    0    7  6   0  0 0.015 01.1  0.00495   +0.98983   +1.00442     +1.473990 
   8    0    8  6   0  0 0.015 01.1  0.00507   +1.01500   +1.01425     -0.073892 
   9    0    9  6   0  0 0.015 01.1  0.00525   +1.05004   +1.06354     +1.285665 
  10    0   10  6   0  0 0.015 01.1  0.00525   +1.05000   +1.05572     +0.544762 
  11    0   11  6   0  0 0.015 01.1  0.00494   +0.98840   +0.98706     -0.135573 
  12    0   12  6   0  0 0.015 01.1  0.00496   +0.99147   +0.97935     -1.222427 
  13    0   13  6   0  0 0.015 01.1  0.00487   +0.97428   +0.98830     +1.439011 
  14    0   14  6   0  0 0.015 01.1  0.00490   +0.98106   +0.97491     -0.626873 
  15    0   15  6   0  0 0.015 01.1  0.00483   +0.96708   +0.96181     -0.544939 
  16    0   16  6   0  0 0.015 01.1  0.00491   +0.98211   +0.98492     +0.286119 
  17    0   17  6   0  0 0.015 01.1  0.00491   +0.98110   +0.99315     +1.228213 
  18    0   18  6   0  0 0.015 01.1  0.00487   +0.97300   +0.96900     -0.411100 
  19    0   19  6   0  0 0.015 01.1  0.00481   +0.96200   +0.95555     -0.670478 
  20    0   20  6   0  0 0.015 01.1  0.00481   +0.96201   +0.96201     +0.000000 
  21    0   21  6   0  0 0.015 01.1  0.00482   +0.96347   +0.96475     +0.132853 
  22    0   22  6   0  0 0.015 01.1  0.00485   +0.96968   +0.98411     +1.488120 
  23    0   23  6   0  0 0.015 01.1  0.00491   +0.98288   +0.98907     +0.629782 
  24    0   24  6   0  0 0.015 01.1  0.00496   +0.99200   +1.00000     +0.806452 
  25    0   25  6   0  0 0.015 01.1  0.00525   +1.05000   +1.05653     +0.621905 
  26    0   26  6   0  0 0.015 01.1  0.00507   +1.01500   +1.02170     +0.660099 
  27    0   27  6   0  0 0.015 01.1  0.00484   +0.96800   +0.97413     +0.633264 
  28    0   28  6   0  0 0.015 01.1  0.00482   +0.96396   +0.97421     +1.063322 
  29    0   29  6   0  0 0.015 01.1  0.00482   +0.96435   +0.95839     -0.618033 
  30    0   30  6   0  0 0.015 01.1  0.00475   +0.95000   +0.95978     +1.029474 
  31    0   31  6   0  0 0.015 01.1  0.00483   +0.96700   +0.98080     +1.427094 
  32    0   32  6   0  0 0.015 01.1  0.00482   +0.96365   +0.96834     +0.486691 
  33    0   33  6   0  0 0.015 01.1  0.00475   +0.94953   +0.94699     -0.267501 
  34    0   34  6   0  0 0.015 01.1  0.00483   +0.96619   +0.95668     -0.984278 
  35    0   35  6   0  0 0.015 01.1  0.00483   +0.96554   +0.96417     -0.141890 
  36    0   36  6   0  0 0.015 01.1  0.00483   +0.96636   +0.97814     +1.219007 
  37    0   37  6   0  0 0.015 01.1  0.00483   +0.96597   +0.96658     +0.063149 
  38    0   38  6   0  0 0.015 01.1  0.00454   +0.90839   +0.91805     +1.063420 
  39    0   39  6   0  0 0.015 01.1  0.00481   +0.96097   +0.95592     -0.525511 
  40    0   40  6   0  0 0.015 01.1  0.00485   +0.97000   +0.98057     +1.089691 
  41    0   41  6   0  0 0.015 01.1  0.00485   +0.96933   +0.96995     +0.063962 
  42    0   42  6   0  0 0.015 01.1  0.00492   +0.98500   +0.99725     +1.243655 
  43    0   43  6   0  0 0.015 01.1  0.00487   +0.97437   +0.96790     -0.664019 
  44    0   44  6   0  0 0.015 01.1  0.00499   +0.99801   +1.01077     +1.278544 
  45    0   45  6   0  0 0.015 01.1  0.00501   +1.00157   +1.01242     +1.083299 
  46    0   46  6   0  0 0.015 01.1  0.00502   +1.00500   +0.99939     -0.558209 
  47    0   47  6   0  0 0.015 01.1  0.00494   +0.98721   +0.97610     -1.125394 
  48    0   48  6   0  0 0.015 01.1  0.00510   +1.01994   +1.02512     +0.507873 
  49    0   49  6   0  0 0.015 01.1  0.00513   +1.02500   +1.03372     +0.850732 
  50    0   50  6   0  0 0.015 01.1  0.00503   +1.00559   +1.00215     -0.342088 
  51    0   51  6   0  0 0.015 01.1  0.00489   +0.97870   +0.97538     -0.339226 
  52    0   52  6   0  0 0.015 01.1  0.00485   +0.97101   +0.98125     +1.054572 
  53    0   53  6   0  0 0.015 01.1  0.00479   +0.95736   +0.95590     -0.152503 
  54    0   54  6   0  0 0.015 01.1  0.00477   +0.95500   +0.96441     +0.985340 
  55    0   55  6   0  0 0.015 01.1  0.00477   +0.95444   +0.96404     +1.005825 
  56    0   56  6   0  0 0.015 01.1  0.00478   +0.95644   +0.96770     +1.177282 
  57    0   57  6   0  0 0.015 01.1  0.00488   +0.97604   +0.98340     +0.754067 
  58    0   58  6   0  0 0.015 01.1  0.00484   +0.96826   +0.97333     +0.523620 
  59    0   59  6   0  0 0.015 01.1  0.00492   +0.98500   +0.97378     -1.139086 
  60    0   60  6   0  0 0.015 01.1  0.00497   +0.99410   +0.98007     -1.411327 
  61    0   61  6   0  0 0.015 01.1  0.00498   +0.99500   +0.99839     +0.340704 
  62    0   62  6   0  0 0.015 01.1  0.00499   +0.99800   +1.00495     +0.696393 
  63    0   63  6   0  0 0.015 01.1  0.00485   +0.97014   +0.98331     +1.357536 
  64    0   64  6   0  0 0.015 01.1  0.00491   +0.98192   +0.98565     +0.379868 
  65    0   65  6   0  0 0.015 01.1  0.00496   +0.99134   +0.99041     -0.093812 
  66    0   66  6   0  0 0.015 01.1  0.00525   +1.05000   +1.04956     -0.041905 
  67    0   67  6   0  0 0.015 01.1  0.00512   +1.02317   +1.03441     +1.098547 
  68    0   68  6   0  0 0.015 01.1  0.00495   +0.99028   +0.99972     +0.953266 
  69    0   69  6   0  0 0.015 01.1  0.00517   +1.03500   +1.03837     +0.325604 
  70    0   70  6   0  0 0.015 01.1  0.00489   +0.97823   +0.98023     +0.204451 
  71    0   71  6   0  0 0.015 01.1  0.00489   +0.97756   +0.97776     +0.020459 
  72    0   72  6   0  0 0.015 01.1  0.00490   +0.98000   +0.99073     +1.094898 
  73    0   73  6   0  0 0.015 01.1  0.00496   +0.99100   +0.99612     +0.516650 
  74    0   74  6   0  0 0.015 01.1  0.00485   +0.97069   +0.96454     -0.633570 
  75    0   75  6   0  0 0.015 01.1  0.00489   +0.97754   +0.98944     +1.217341 
  76    0   76  6   0  0 0.015 01.1  0.00479   +0.95874   +0.94607     -1.321526 
  77    0   77  6   0  0 0.015 01.1  0.00503   +1.00600   +1.00686     +0.085487 
  78    0   78  6   0  0 0.015 01.1  0.00504   +1.00727   +1.00752     +0.024820 
  79    0   79  6   0  0 0.015 01.1  0.00507   +1.01470   +1.01433     -0.036464 
  80    0   80  6   0  0 0.015 01.1  0.00520   +1.04000   +1.05091     +1.049038 
  81    0   81  6   0  0 0.015 01.1  0.00495   +0.98912   +1.00050     +1.150518 
  82    0   82  6   0  0 0.015 01.1  0.00498   +0.99695   +1.00985     +1.293947 
  83    0   83  6   0  0 0.015 01.1  0.00496   +0.99229   +0.98188     -1.049088 
  84    0   84  6   0  0 0.015 01.1  0.00495   +0.99003   +0.97610     -1.407028 
  85    0   85  6   0  0 0.015 01.1  0.00497   +0.99479   +0.98571     -0.912755 
  86    0   86  6   0  0 0.015 01.1  0.00499   +0.99845   +1.00255     +0.410636 
  87    0   87  6   0  0 0.015 01.1  0.00507   +1.01500   +1.02264     +0.752709 
  88    0   88  6   0  0 0.015 01.1  0.00497   +0.99423   +0.98853     -0.573308 
  89    0   89  6   0  0 0.015 01.1  0.00502   +1.00500   +1.00276     -0.222886 
  90    0   90  6   0  0 0.015 01.1  0.00492   +0.98500   +0.98876     +0.381726 
  91    0   91  6   0  0 0.015 01.1  0.00490   +0.98000   +0.98364     +0.371429 
  92    0   92  6   0  0 0.015 01.1  0.00498   +0.99666   +0.99930     +0.264885 
  93    0   93  6   0  0 0.015 01.1  0.00497   +0.99358   +0.98784     -0.577709 
  94    0   94  6   0  0 0.015 01.1  0.00499   +0.99757   +0.99234     -0.524274 
  95    0   95  6   0  0 0.015 01.1  0.00496   +0.99229   +1.00552     +1.333280 
  96    0   96  6   0  0 0.015 01.1  0.00500   +0.99985   +1.01089     +1.104166 
  97    0   97  6   0  0 0.015 01.1  0.00509   +1.01713   +1.02119     +0.399162 
  98    0   98  6   0  0 0.015 01.1  0.00513   +1.02572   +1.02746     +0.169637 
  99    0   99  6   0  0 0.015 01.1  0.00505   +1.01000   +1.00605     -0.391089 
 100    0  100  6   0  0 0.015 01.1  0.00509   +1.01700   +1.01795     +0.093412 
 101    0  101  6   0  0 0.015 01.1  0.00500   +1.00083   +1.00670     +0.586513 
 102    0  102  6   0  0 0.015 01.1  0.00499   +0.99740   +1.00444     +0.705835 
 103    0  103  6   0  0 0.015 01.1  0.00505   +1.01000   +1.01432     +0.427723 
 104    0  104  6   0  0 0.015 01.1  0.00492   +0.98369   +0.99168     +0.812248 
 105    0  105  6   0  0 0.015 01.1  0.00490   +0.98030   +0.97220     -0.826278 
 106    0  106  6   0  0 0.015 01.1  0.00488   +0.97660   +0.97460     -0.204792 
 107    0  107  6   0  0 0.015 01.1  0.00476   +0.95200   +0.94573     -0.658613 
 108    0  108  6   0  0 0.015 01.1  0.00489   +0.97886   +0.98840     +0.974603 
 109    0  109  6   0  0 0.015 01.1  0.00489   +0.97826   +0.98025     +0.203422 
 110    0  110  6   0  0 0.015 01.1  0.00489   +0.97831   +0.98646     +0.833069 
 111    0  111  6   0  0 0.015 01.1  0.00490   +0.98000   +0.97713     -0.292857 
 112    0  112  6   0  0 0.015 01.1  0.00487   +0.97500   +0.98043     +0.556923 
 113    0  113  6   0  0 0.015 01.1  0.00496   +0.99300   +1.00284     +0.990937 
 114    0  114  6   0  0 0.015 01.1  0.00481   +0.96275   +0.97173     +0.932745 
 115    0  115  6   0  0 0.015 01.1  0.00481   +0.96281   +0.97272     +1.029279 
 116    0  116  6   0  0 0.015 01.1  0.00502   +1.00500   +1.00043     -0.454726 
 117    0  117  6   0  0 0.015 01.1  0.00492   +0.98346   +0.99641     +1.316780 
 118    0  118  6   0  0 0.015 01.1  0.00483   +0.96514   +0.95277     -1.281679 
 119    0    1  2   0  0 0.020 01.0  0.00367   -0.29100   -0.29780     +2.336770 
 120    0    2  2   0  0 0.020 01.0  0.00249   -0.11400   -0.11326     -0.649123 
 121    0    3  2   0  0 0.020 01.0  0.00321   -0.22200   -0.22252     +0.234234 
 122    0    4  2   0  0 0.020 01.0  0.00415   -0.36300   -0.37357     +2.911846 
 123    0    5  2   0  0 0.020 01.0  0.00173   +0.00000   -0.00491     +0.000000 
 124    0    6  2   0  0 0.020 01.0  0.00371   -0.29600   -0.30597     +3.368243 
 125    0    7  2   0  0 0.020 01.0  0.00245   -0.10800   -0.10956     +1.444444 
 126    0    8  2   0  0 0.020 01.0  0.00360   -0.28000   -0.26980     -3.642857 
 127    0    9  2   0  0 0.020 01.0  0.00173   +0.00000   -0.00148     +0.000000 
 128    0   10  2   0  0 0.020 01.0  0.01507   +2.00000   +2.00269     +0.134500 
 129    0   11  2   0  0 0.020 01.0  0.00439   -0.39900   -0.39229     -1.681704 
 130    0   12  2   0  0 0.020 01.0  0.02928   +4.13200   +4.10761     -0.590271 
 131    0   13  2   0  0 0.020 01.0  0.00303   -0.19400   -0.19916     +2.659794 
 132    0   14  2   0  0 0.020 01.0  0.00227   -0.08000   -0.08660     +8.250000 
 133    0   15  2   0  0 0.020 01.0  0.00515   -0.51300   -0.50769     -1.035088 
 134    0   16  2   0  0 0.020 01.0  0.00268   -0.14200   -0.14709     +3.584507 
 135    0   17  2   0  0 0.020 01.0  0.00215   -0.06300   -0.06253     -0.746032 
 136    0   18  2   0  0 0.020 01.0  0.00401   -0.34200   -0.34771     +1.669591 
 137    0   19  2   0  0 0.020 01.0  0.00344   -0.25600   -0.25957     +1.394531 
 138    0   20  2   0  0 0.020 01.0  0.00242   -0.10300   -0.09606     -6.737864 
 139    0   21  2   0  0 0.020 01.0  0.00227   -0.08000   -0.08409     +5.112500 
 140    0   22  2   0  0 0.020 01.0  0.00211   -0.05700   -0.05316     -6.736842 
 141    0   23  2   0  0 0.020 01.0  0.00200   -0.04000   -0.04051     +1.275000 
 142    0   24  2   0  0 0.020 01.0  0.00260   -0.13000   -0.12887     -0.869231 
 143    0   25  2   0  0 0.020 01.0  0.02173   +3.00000   +2.95903     -1.365667 
 144    0   26  2   0  0 0.020 01.0  0.04507   +6.50000   +6.39708     -1.583385 
 145    0   27  2   0  0 0.020 01.0  0.00469   -0.44300   -0.44973     +1.519187 
 146    0   28  2   0  0 0.020 01.0  0.00238   -0.09700   -0.09531     -1.742268 
 147    0   29  2   0  0 0.020 01.0  0.00265   -0.13700   -0.13705     +0.036496 
 148    0   30  2   0  0 0.020 01.0  0.00173   -0.00000   +0.00508     +0.000000 
 149    0   31  2   0  0 0.020 01.0  0.01603   +2.14400   +2.10968     -1.600746 
 150    0   32  2   0  0 0.020 01.0  0.00397   -0.33600   -0.33948     +1.035714 
 151    0   33  2   0  0 0.020 01.0  0.00261   -0.13100   -0.13055     -0.343511 
 152    0   34  2   0  0 0.020 01.0  0.00397   -0.33600   -0.33159     -1.312500 
 153    0   35  2   0  0 0.020 01.0  0.00299   -0.18800   -0.18772     -0.148936 
 154    0   36  2   0  0 0.020 01.0  0.00291   -0.17700   -0.18415     +4.039548 
 155    0   37  2   0  0 0.020 01.0  0.00173   +0.00000   +0.00477     +0.000000 
 156    0   38  2   0  0 0.020 01.0  0.00173   +0.00000   -0.00056     +0.000000 
 157    0   39  2   0  0 0.020 01.0  0.00276   -0.15400   -0.15686     +1.857143 
 158    0   40  2   0  0 0.020 01.0  0.00556   -0.57400   -0.58947     +2.695122 
 159    0   41  2   0  0 0.020 01.0  0.00314   -0.21100   -0.21075     -0.118483 
 160    0   42  2   0  0 0.020 01.0  0.00707   -0.80100   -0.78804     -1.617978 
 161    0   43  2   0  0 0.020 01.0  0.00242   -0.10300   -0.09667     -6.145631 
 162    0   44  2   0  0 0.020 01.0  0.00234   -0.09100   -0.09121     +0.230769 
 163    0   45  2   0  0 0.020 01.0  0.00375   -0.30200   -0.30268     +0.225166 
 164    0   46  2   0  0 0.020 01.0  0.02733   +3.84000   +3.89647     +1.470573 
 165    0   47  2   0  0 0.020 01.0  0.00303   -0.19400   -0.20088     +3.546392 
 166    0   48  2   0  0 0.020 01.0  0.00249   -0.11400   -0.11922     +4.578947 
 167    0   49  2   0  0 0.020 01.0  0.01203   +1.54400   +1.55588     +0.769430 
 168    0   50  2   0  0 0.020 01.0  0.00238   -0.09700   -0.09247     -4.670103 
 169    0   51  2   0  0 0.020 01.0  0.00238   -0.09700   -0.09253     -4.608247 
 170    0   52  2   0  0 0.020 01.0  0.00242   -0.10300   -0.09759     -5.252427 
 171    0   53  2   0  0 0.020 01.0  0.00261   -0.13100   -0.13239     +1.061069 
 172    0   54  2   0  0 0.020 01.0  0.00283   -0.16400   -0.17051     +3.969512 
 173    0   55  2   0  0 0.020 01.0  0.00413   -0.35900   -0.37074     +3.270195 
 174    0   56  2   0  0 0.020 01.0  0.00493   -0.47900   -0.48963     +2.219207 
 175    0   57  2   0  0 0.020 01.0  0.00219   -0.06800   -0.06568     -3.411765 
 176    0   58  2   0  0 0.020 01.0  0.00219   -0.06800   -0.06352     -6.588235 
 177    0   59  2   0  0 0.020 01.0  0.00193   -0.02900   -0.02779     -4.172414 
 178    0   60  2   0  0 0.020 01.0  0.00470   -0.44500   -0.45430     +2.089888 
 179    0   61  2   0  0 0.020 01.0  0.01240   +1.60000   +1.60505     +0.315625 
 180    0   62  2   0  0 0.020 01.0  0.00466   -0.43900   -0.42936     -2.195900 
 181    0   63  2   0  0 0.020 01.0  0.00173   -0.00000   -0.00117     +0.000000 
 182    0   64  2   0  0 0.020 01.0  0.00173   -0.00000   +0.00119     +0.000000 
 183    0   65  2   0  0 0.020 01.0  0.02780   +3.91000   +3.91191     +0.048849 
 184    0   66  2   0  0 0.020 01.0  0.02639   +3.69800   +3.68566     -0.333694 
 185    0   67  2   0  0 0.020 01.0  0.00280   -0.16000   -0.16671     +4.193750 
 186    0   68  2   0  0 0.020 01.0  0.00173   +0.00000   +0.00287     +0.000000 
 187    0   69  2   0  0 0.020 01.0  0.12665  -18.73703  -18.91856     +0.968830 
 188    0   70  2   0  0 0.020 01.0  0.00424   -0.37600   -0.38730     +3.005319 
 189    0   71  2   0  0 0.020 01.0  0.00173   +0.00000   -0.00143     +0.000000 
 190    0   72  2   0  0 0.020 01.0  0.00253   -0.12000   -0.12449     +3.741667 
 191    0   73  2   0  0 0.020 01.0  0.00213   -0.06000   -0.05765     -3.916667 
 192    0   74  2   0  0 0.020 01.0  0.00432   -0.38800   -0.39781     +2.528351 
 193    0   75  2   0  0 0.020 01.0  0.00352   -0.26800   -0.26807     +0.026119 
 194    0   76  2   0  0 0.020 01.0  0.00432   -0.38800   -0.38401     -1.028351 
 195    0   77  2   0  0 0.020 01.0  0.00405   -0.34800   -0.34724     -0.218391 
 196    0   78  2   0  0 0.020 01.0  0.00443   -0.40500   -0.39290     -2.987654 
 197    0   79  2   0  0 0.020 01.0  0.00321   -0.22200   -0.21792     -1.837838 
 198    0   80  2   0  0 0.020 01.0  0.02859   +4.02900   +4.08885     +1.485480 
 199    0   81  2   0  0 0.020 01.0  0.00173   +0.00000   -0.00037     +0.000000 
...
Número de medidores SCADA:     1098
Número de PMUs:                0
Número de medidas das PMUs:    0
----------------------------------------------------------------------------------

Não há medidas de ângulo.
Não há medidores desabilitados.
============================== Estado Estimado ===================================
                 Barra     Mod(pu)    Ang(graus)              
----------------------------------------------------------------------------------
                    1            0.9711             80.72        
                    2            0.9814             82.03        
                    3            0.9789             80.76        
                    4            0.9986             80.62        
                    5            1.0003             80.69        
                    6            0.9907             81.39        
                    7            0.9905             82.00        
                    8            1.0154             80.56        
                    9            1.0506             83.67        
                   10            1.0505             87.02        
                   11            0.9890             81.52        
                   12            0.9920             83.20        
                   13            0.9749             78.59        
                   14            0.9813             79.82        
                   15            0.9673             71.31        
                   16            0.9825             79.98        
                   17            0.9815             74.42        
                   18            0.9734             71.48        
                   19            0.9623             69.72        
                   20            0.9620             70.01        
                   21            0.9635             70.74        
                   22            0.9699             72.01        
                   23            0.9831             74.59        
                   24            0.9922             61.69        
                   25            1.0504             92.45        
                   26            1.0154             96.94        
                   27            0.9683             82.23        
                   28            0.9643             82.89        
                   29            0.9646             84.17        
                   30            0.9506             75.49        
                   31            0.9674             84.90        
                   32            0.9640             79.94        
                   33            0.9499             62.35        
                   34            0.9670             53.28        
                   35            0.9663             52.84        
                   36            0.9672             52.86        
                   37            0.9668             53.30        
                   38            0.9092             56.23        
                   39            0.9616             46.10        
                   40            0.9705             42.53        
                   41            0.9702             40.47        
                   42            0.9862             36.44        
                   43            0.9755             48.85        
                   44            0.9998             44.10        
                   45            1.0033             43.01        
                   46            1.0074             49.55        
                   47            0.9886             34.19        
                   48            1.0215             37.64        
                   49            1.0264             34.92        
                   50            1.0070             33.65        
                   51            0.9804             32.10        
                   52            0.9727             31.57        
                   53            0.9585             30.98        
                   54            0.9563             31.46        
                   55            0.9557             31.11        
                   56            0.9577             31.27        
                   57            0.9774             32.07        
                   58            0.9701             31.58        
                   59            0.9859             31.99        
                   60            0.9951             33.00        
                   61            0.9960             33.40        
                   62            0.9991             33.18        
                   63            0.9711             32.09        
                   64            0.9829             32.08        
                   65            0.9923             30.58        
                   66            1.0511             35.70        
                   67            1.0243             34.08        
                   68            0.9911             20.11        
                   69            1.0362              0.00        
                   70            0.9787             14.23        
                   71            0.9780             17.67        
                   72            0.9804             36.99        
                   73            0.9913             17.36        
                   74            0.9715              9.88        
                   75            0.9782              9.47        
                   76            0.9590             11.37        
                   77            1.0066             17.61        
                   78            1.0079             17.93        
                   79            1.0153             19.08        
                   80            1.0411             23.26        
                   81            0.9900             21.32        
                   82            0.9976             24.77        
                   83            0.9927             27.50        
                   84            0.9900             32.32        
                   85            0.9948             34.87        
                   86            0.9988             34.21        
                   87            1.0149             34.54        
                   88            0.9946             39.50        
                   89            1.0056             43.79        
                   90            0.9887             39.08        
                   91            0.9825             38.38        
                   92            0.9977             37.63        
                   93            0.9949             33.54        
                   94            0.9988             30.34        
                   95            0.9935             28.30        
                   96            1.0009             26.31        
                   97            1.0182             24.60        
                   98            1.0271             25.48        
                   99            1.0113             27.59        
                  100            1.0182             31.11        
                  101            1.0023             33.31        
                  102            0.9988             36.09        
                  103            1.0112             29.28        
                  104            0.9853             27.60        
                  105            0.9817             26.91        
                  106            0.9780             26.71        
                  107            0.9536             24.98        
                  108            0.9802             26.27        
                  109            0.9796             26.03        
                  110            0.9794             25.61        
                  111            0.9813             27.30        
                  112            0.9757             23.13        
                  113            0.9935             74.78        
                  114            0.9630             80.59        
                  115            0.9630             80.73        
                  116            1.0059             19.61        
                  117            0.9843             82.36        
                  118            0.9657             10.08        
----------------------------------------------------------------------------------
Convergiu em:    4 iteraçoes. 
----------------------------------------------------------------------------------
--- RESIDUOS NORMALIZADOS --------------------------------------------------------
   N    D    P  TP      Real     Medido   Estimado      Med-Est        rn 
----------------------------------------------------------------------------------
 495   89   92  1    +2.0721    +2.0579    +0.6617  +1.3961e+00     11.272 
 867   92   89  1    -2.0298    -2.0114    -0.6445  -1.3669e+00     11.131 
 477   77   80  1    -2.0290    -2.0359    -0.9848  -1.0511e+00      8.560 
 849   80   77  1    +2.0983    +2.0612    +1.0129  +1.0483e+00      8.415 
 492   89   90  1    +0.4911    +0.4821    +0.8196  -3.3757e-01      5.169 
 864   90   89  1    -0.4787    -0.4931    -0.8038  +3.1075e-01      4.773 
1053   92   89  4    +0.3173    +0.3112    +0.1264  +1.8484e-01      3.013 
 208    0   90  2    -1.2950    -1.2840    -1.0743  -2.0974e-01      2.396 
 663   77   80  4    +0.0812    +0.0876    -0.0178  +1.0541e-01      2.247 
 195    0   77  2    -0.3480    -0.3472    -0.4030  +5.5785e-02      2.223 
 210    0   92  2    -0.3700    -0.3683    -0.4260  +5.7632e-02      2.068 
 497   91   92  1    -0.0031    -0.0031    +0.0605  -6.3600e-02      1.712 
 869   92   91  1    +0.0038    -0.0013    -0.0597  +5.8337e-02      1.565 
 494   90   91  1    +0.0971    +0.0948    +0.1508  -5.6030e-02      1.312 
 493   89   90  1    +0.9340    +0.9281    +0.8196  +1.0850e-01      1.277 
 866   91   90  1    -0.0969    -0.0977    -0.1502  +5.2468e-02      1.226 
 681   89   92  4    -0.1567    -0.1547    -0.0985  -5.6150e-02      1.079 
 865   90   89  1    -0.9134    -0.8933    -0.8038  -8.9452e-02      1.059 
 313    0   77  5    +0.0039    +0.0064    +0.0224  -1.6004e-02      0.928 
 461   68   69  1   +10.1313    +9.9930   +10.2080  -2.1501e-01      0.851 
 186    0   68  2    +0.0000    +0.0029    +0.0102  -7.3375e-03      0.813 
 328    0   92  5    -0.0870    -0.0924    -0.0747  -1.7671e-02      0.796 
 198    0   80  2    +4.0290    +4.0888    +4.1954  -1.0652e-01      0.789 
 196    0   78  2    -0.4050    -0.3929    -0.4266  +3.3657e-02      0.704 
 197    0   79  2    -0.2220    -0.2179    -0.2415  +2.3546e-02      0.649 
 211    0   93  2    -0.0680    -0.0621    -0.0779  +1.5799e-02      0.611 
 478   77   80  1    -0.9575    -0.9338    -0.9848  +5.0986e-02      0.572 
 325    0   89  5    -0.3545    -0.3588    -0.3824  +2.3535e-02      0.561 
 218    0  100  2    +2.3090    +2.3455    +2.2916  +5.3876e-02      0.532 
 851   80   79  1    +1.0947    +1.0843    +1.1327  -4.8388e-02      0.525 
 852   81   68  1    +0.9895    +0.9686    +1.0105  -4.1838e-02      0.521 
 408   30   38  1    +5.3835    +5.2817    +5.3786  -9.6859e-02      0.513 
 458   65   68  1   +11.1647   +11.0590   +11.1834  -1.2433e-01      0.475 
1050   90   89  4    +0.0246    +0.0246    +0.0053  +1.9231e-02      0.471 
 144    0   26  2    +6.5000    +6.3971    +6.4864  -8.9348e-02      0.467 
1035   80   77  4    +0.0672    +0.0734    +0.0944  -2.1057e-02      0.459 
 212    0   94  2    -0.1710    -0.1630    -0.1749  +1.1877e-02      0.446 
 480   68   81  1    -0.9878    -0.9734    -1.0086  +3.5185e-02      0.438 
 863   89   88  1    +1.0360    +1.0128    +1.0490  -3.6180e-02      0.423 
 848   79   78  1    +0.8550    +0.8387    +0.8724  -3.3700e-02      0.422 
 909  116   68  1    -1.8400    -1.8548    -1.8128  -4.1972e-02      0.421 
 143    0   25  2    +3.0000    +2.9590    +3.0065  -4.7443e-02      0.417 
 201    0   83  2    -0.1140    -0.1132    -0.1244  +1.1226e-02      0.413 
 460   49   69  1    +1.8644    +1.8281    +1.8761  -4.7986e-02      0.406 
 209    0   91  2    -0.1000    -0.1044    -0.0896  -1.4742e-02      0.404 
 194    0   76  2    -0.3880    -0.3840    -0.4047  +2.0725e-02      0.404 
 822   65   38  1    -3.7744    -3.7065    -3.7703  +6.3732e-02      0.399 
 220    0  102  2    -0.0280    -0.0294    -0.0398  +1.0374e-02      0.396 
 780   38   30  1    -5.2275    -5.2957    -5.2231  -7.2618e-02      0.389 
 326    0   90  5    +0.0565    +0.0549    +0.0418  +1.3096e-02      0.385 
 723   68  116  4    -3.8252    -3.7795    -3.8363  +5.6733e-02      0.384 
 831   69   47  1    -1.6618    -1.6276    -1.6703  +4.2710e-02      0.380 
 515   92  102  1    +0.4325    +0.4286    +0.4517  -2.3127e-02      0.378 
 260    0   24  5    +2.4498    +2.4070    +2.4504  -4.3310e-02      0.374 
 479   79   80  1    -1.0770    -1.0801    -1.1138  +3.3706e-02      0.368 
 193    0   75  2    -0.2680    -0.2681    -0.2798  +1.1756e-02      0.365 
 203    0   85  2    -0.1370    -0.1342    -0.1432  +9.0354e-03      0.364 
 987   54   49  4    -0.1966    -0.2031    -0.1834  -1.9741e-02      0.362 
 678   89   90  4    -0.0320    -0.0296    -0.0445  +1.4930e-02      0.362 
 830   68   65  1   -10.9896   -10.9160   -11.0080  +9.2079e-02      0.354 
 482   77   82  1    -1.2333    -1.2119    -1.2450  +3.3111e-02      0.347 
 503   82   96  1    -0.4677    -0.4593    -0.4810  +2.1673e-02      0.342 
 385   23   25  1    -3.8513    -3.9067    -3.8525  -5.4241e-02      0.337 
 858   85   84  1    +0.5849    +0.5711    +0.5947  -2.3567e-02      0.336 
 868   92   89  1    -0.6350    -0.6191    -0.6445  +2.5369e-02      0.334 
1019   69   68  4    +1.1113    +1.1180    +1.1434  -2.5394e-02      0.328 
 757   25   23  1    +4.0957    +4.0435    +4.0969  -5.3333e-02      0.324 
 845   77   69  1    +2.9030    +2.9562    +2.9102  +4.5947e-02      0.324 
 187    0   69  2   -18.7370   -18.9186   -18.8122  -1.0636e-01      0.322 
 262    0   26  5    +0.9807    +1.0012    +0.9767  +2.4536e-02      0.322 
 481   81   80  1    -0.9895    -0.9872    -1.0121  +2.4864e-02      0.309 
1008   65   38  4    +1.5705    +1.5980    +1.5671  +3.0915e-02      0.308 
 887  102   92  1    -0.4301    -0.4303    -0.4491  +1.8817e-02      0.307 
 329    0   93  5    -0.0400    -0.0396    -0.0306  -9.0477e-03      0.307 
 498   92   93  1    +0.7661    +0.7561    +0.7800  -2.3933e-02      0.304 
 888  102  101  1    +0.4021    +0.3904    +0.4093  -1.8884e-02      0.302 
 854   82   77  1    +1.2897    +1.2732    +1.3023  -2.9107e-02      0.301 
 485   83   85  1    -0.7709    -0.7552    -0.7791  +2.3897e-02      0.296 
 465   24   72  1    +2.0668    +2.1090    +2.0734  +3.5515e-02      0.293 
 834   70   69  1    +1.8281    +1.8484    +1.8156  +3.2837e-02      0.290 
 384   23   24  1    +4.1933    +4.1496    +4.1976  -4.8008e-02      0.290 
 764   30   26  1    -4.0734    -4.0161    -4.0635  +4.7353e-02      0.289 
 743   14   12  1    -0.7738    -0.7553    -0.7776  +2.2306e-02      0.289 
 669   82   83  4    +0.4838    +0.4721    +0.4902  -1.8075e-02      0.285 
 456   65   66  1    -2.6805    -2.7231    -2.6872  -3.5904e-02      0.282 
 248    0   12  5    -0.4070    -0.3951    -0.4076  +1.2476e-02      0.280 
 836   71   70  1    +1.5337    +1.5016    +1.5297  -2.8138e-02      0.278 
 667   81   80  4    +0.5276    +0.5425    +0.5248  +1.7730e-02      0.277 
 274    0   38  5    +0.0000    +0.0017    -0.0038  +5.4540e-03      0.273 
 883   97   96  1    -0.2990    -0.3097    -0.2942  -1.5478e-02      0.272 
 504   94   96  1    +0.7362    +0.7171    +0.7383  -2.1211e-02      0.268 
 505   80   97  1    -0.2118    -0.2189    -0.2053  -1.3604e-02      0.267 
 647   68   69  4    +2.4766    +2.5245    +2.4923  +3.2188e-02      0.267 
 216    0   98  2    -0.1940    -0.2011    -0.1914  -9.6947e-03      0.265 
 483   82   83  1    -1.1300    -1.1075    -1.1308  +2.3291e-02      0.263 
 846   77   75  1    +0.6813    +0.6727    +0.6930  -2.0300e-02      0.262 
 290    0   54  5    -0.8032    -0.7835    -0.8012  +1.7734e-02      0.257 
 875   96   82  1    +0.4715    +0.4686    +0.4849  -1.6274e-02      0.257 
 234    0  116  2    -1.8400    -1.8383    -1.8128  -2.5482e-02      0.256 
 164    0   46  2    +3.8400    +3.8965    +3.8599  +3.6565e-02      0.252 
 396   31   32  1    +0.7720    +0.7883    +0.7687  +1.9595e-02      0.252 
 200    0   82  2    -0.3080    -0.3005    -0.3094  +8.9669e-03      0.251 
 895  106  105  1    -0.0746    -0.0811    -0.0709  -1.0194e-02      0.250 
 547    8    9  4    -1.5545    -1.5843    -1.5592  -2.5180e-02      0.249 
 490   85   89  1    -0.8666    -0.8575    -0.8784  +2.0849e-02      0.247 
 759   27   25  1    -1.1374    -1.1626    -1.1399  -2.2724e-02      0.245 
 781   40   39  1    -0.8324    -0.8508    -0.8314  -1.9413e-02      0.244 
 236    0  118  2    -0.1880    -0.1850    -0.1948  +9.7665e-03      0.244 
 125    0    7  2    -0.1080    -0.1096    -0.1022  -7.3578e-03      0.243 
 425   49   51  1    +0.4347    +0.4478    +0.4323  +1.5484e-02      0.241 
 857   85   83  1    +0.7998    +0.7890    +0.8087  -1.9614e-02      0.240 
 821   61   64  1    +0.8490    +0.8341    +0.8526  -1.8541e-02      0.239 
 314    0   78  5    -0.1480    -0.1557    -0.1461  -9.6554e-03      0.239 
 315    0   79  5    -0.1820    -0.1907    -0.1805  -1.0276e-02      0.237 
 692   80   98  4    +0.2038    +0.2122    +0.2006  +1.1658e-02      0.230 
 648   69   70  4    +1.0499    +1.0709    +1.0505  +2.0410e-02      0.228 
 905  113   32  1    -0.3489    -0.3575    -0.3436  -1.3890e-02      0.227 
 847   78   77  1    +0.4460    +0.4548    +0.4417  +1.3099e-02      0.226 
 305    0   69  5    +6.8972    +6.9950    +6.9535  +4.1529e-02      0.226 
 133    0   15  2    -0.5130    -0.5077    -0.5174  +9.6731e-03      0.225 
 174    0   56  2    -0.4790    -0.4896    -0.4785  -1.1141e-02      0.224 
 578   26   30  4    +0.6894    +0.7001    +0.6840  +1.6051e-02      0.224 
 862   89   85  1    +0.8852    +0.8784    +0.8974  -1.9034e-02      0.224 
1061   96   82  4    -0.1099    -0.1149    -0.1050  -9.9071e-03      0.224 
 771   34   19  1    -0.9299    -0.9471    -0.9278  -1.9330e-02      0.220 
 463   24   70  1    +1.7411    +1.7177    +1.7428  -2.5175e-02      0.220 
 214    0   96  2    -0.2170    -0.2118    -0.2184  +6.5832e-03      0.219 
 511   96   97  1    +0.3017    +0.3092    +0.2968  +1.2421e-02      0.218 
1054   92   89  4    +0.1202    +0.1156    +0.1264  -1.0750e-02      0.217 
 634   63   64  4    -0.6693    -0.6855    -0.6696  -1.5959e-02      0.216 
 476   78   79  1    -0.8510    -0.8511    -0.8683  +1.7128e-02      0.214 
 608   45   49  4    -0.3369    -0.3487    -0.3358  -1.2977e-02      0.214 
  60    0   60  6    +0.9941    +0.9801    +0.9951  -1.5073e-02      0.214 
 372   13   15  1    +0.4647    +0.4789    +0.4646  +1.4351e-02      0.211 
 855   83   82  1    +1.1472    +1.1293    +1.1481  -1.8738e-02      0.211 
 312    0   76  5    -0.2850    -0.2949    -0.2846  -1.0245e-02      0.211 
 336    0  100  5    +0.3730    +0.3641    +0.3725  -8.4476e-03      0.210 
 149    0   31  2    +2.1440    +2.1097    +2.1324  -2.2677e-02      0.209 
1057   94   92  4    +0.2507    +0.2433    +0.2552  -1.1874e-02      0.209 
 548    8    5  4    +1.1883    +1.1633    +1.1818  -1.8520e-02      0.209 
 828   66   65  1    +2.6805    +2.6607    +2.6872  -2.6476e-02      0.208 
 747   17   15  1    +1.1771    +1.1980    +1.1786  +1.9431e-02      0.208 
 168    0   50  2    -0.0970    -0.0925    -0.0992  +6.7135e-03      0.207 
  22    0   22  6    +0.9697    +0.9841    +0.9699  +1.4230e-02      0.205 
 884  100   98  1    +0.5465    +0.5561    +0.5417  +1.4336e-02      0.205 
 129    0   11  2    -0.3990    -0.3923    -0.3844  -7.9398e-03      0.204 
   6    0    6  6    +0.9900    +0.9765    +0.9907  -1.4239e-02      0.203 
 386   26   25  1    +2.2780    +2.2529    +2.2753  -2.2371e-02      0.201 
 659   69   77  4    +1.5286    +1.5173    +1.5387  -2.1435e-02      0.201 
 990   56   54  4    +0.2152    +0.2241    +0.2145  +9.5607e-03      0.200 
 878   98   80  1    +0.3403    +0.3497    +0.3383  +1.1314e-02      0.200 
 726   76  118  4    -0.2112    -0.2053    -0.2153  +9.9990e-03      0.200 
 753   21   20  1    +0.1396    +0.1459    +0.1368  +9.0418e-03      0.199 
   7    0    7  6    +0.9898    +1.0044    +0.9905  +1.3931e-02      0.199 
 278    0   42  5    +0.1302    +0.1370    +0.1307  +6.2254e-03      0.199 
  84    0   84  6    +0.9900    +0.9761    +0.9900  -1.3899e-02      0.198 
 744   15   13  1    -0.4473    -0.4338    -0.4472  +1.3324e-02      0.198 
 338    0  102  5    -0.0170    -0.0134    -0.0074  -5.9647e-03      0.198 
 570   23   24  4    -0.8572    -0.8706    -0.8562  -1.4449e-02      0.195 
 224    0  106  2    -0.2450    -0.2355    -0.2441  +8.5834e-03      0.195 
 418   46   48  1    +1.0288    +1.0155    +1.0329  -1.7386e-02      0.195 
 254    0   18  5    +0.1768    +0.1686    +0.1767  -8.1139e-03      0.194 
  31    0   31  6    +0.9670    +0.9808    +0.9674  +1.3387e-02      0.193 
  13    0   13  6    +0.9743    +0.9883    +0.9749  +1.3384e-02      0.192 
 571   23   25  4    +0.5069    +0.5171    +0.5048  +1.2338e-02      0.192 
 295    0   59  5    -0.4460    -0.4475    -0.4563  +8.8141e-03      0.192 
 844   77   76  1    +0.7328    +0.7356    +0.7504  -1.4818e-02      0.190 
 633   63   59  4    +0.6693    +0.6871    +0.6730  +1.4063e-02      0.190 
 330    0   94  5    -0.0910    -0.0961    -0.0911  -5.0089e-03      0.189 
 683   91   92  4    -0.1430    -0.1421    -0.1513  +9.2131e-03      0.188 
  76    0   76  6    +0.9587    +0.9461    +0.9590  -1.2954e-02      0.188 
1055   92   91  4    +0.1132    +0.1134    +0.1222  -8.7383e-03      0.187 
 599   43   44  4    -0.1813    -0.1744    -0.1840  +9.5862e-03      0.187 
 576   30   17  4    +0.2205    +0.2152    +0.2246  -9.3785e-03      0.187 
 765   31   17  1    +1.0240    +0.9989    +1.0152  -1.6321e-02      0.186 
 352    0  116  5    +3.7339    +3.7714    +3.7445  +2.6876e-02      0.186 
 118    0  118  6    +0.9651    +0.9528    +0.9657  -1.2884e-02      0.186 
 890  104  100  1    -0.3180    -0.3296    -0.3184  -1.1186e-02      0.186 
 670   83   84  4    +0.2624    +0.2571    +0.2675  -1.0451e-02      0.185 
 876   96   94  1    -0.7202    -0.7367    -0.7223  -1.4476e-02      0.184 
 725   75  118  4    +0.2861    +0.2964    +0.2865  +9.8374e-03      0.184 
 975   47   46  4    +0.6816    +0.6641    +0.6778  -1.3701e-02      0.183 
 644   65   68  4    -0.1884    -0.1901    -0.1842  -5.8231e-03      0.183 
1028   75   69  4    -0.7825    -0.7705    -0.7853  +1.4839e-02      0.183 
 755   23   22  1    +0.2805    +0.2864    +0.2764  +1.0084e-02      0.182 
 178    0   60  2    -0.4450    -0.4543    -0.4449  -9.4333e-03      0.182 
 378   18   19  1    +0.6055    +0.6190    +0.6060  +1.2928e-02      0.182 
 980   49   45  4    +0.3911    +0.3781    +0.3895  -1.1404e-02      0.182 
  12    0   12  6    +0.9915    +0.9794    +0.9920  -1.2668e-02      0.181 
   9    0    9  6    +1.0500    +1.0635    +1.0506  +1.2989e-02      0.180 
1022   71   70  4    -0.3550    -0.3463    -0.3562  +9.9943e-03      0.179 
  47    0   47  6    +0.9872    +0.9761    +0.9886  -1.2513e-02      0.179 
 679   89   90  4    -0.0314    -0.0371    -0.0445  +7.3595e-03      0.178 
1038   81   68  4    -0.5276    -0.5387    -0.5272  -1.1488e-02      0.178 
 969   42   40  4    +0.2344    +0.2260    +0.2359  -9.8904e-03      0.178 
 368    3   12  1    -0.2570    -0.2472    -0.2574  +1.0180e-02      0.178 
 660   75   77  4    +0.0815    +0.0782    +0.0864  -8.1722e-03      0.177 
 439   56   59  1    -0.0746    -0.0701    -0.0783  +8.2489e-03      0.177 
 756   24   23  1    -3.9379    -3.9704    -3.9419  -2.8567e-02      0.177 
...
Possível erro grosseiro no medidor 495!
Não foram identificadas medidas críticas.
Possíveis conjuntos críticos:
Conjunto 1: 609 961
Conjunto 2: 77 41
Conjunto 3: 41 792
Conjunto 4: 955 1029
Conjunto 5: 165 381
Conjunto 6: 121 100
Conjunto 7: 5 98
Conjunto 8: 717 227
Conjunto 9: 544 971
Conjunto 10: 1066 686
Conjunto 11: 1085 626
Conjunto 12: 626 684
Conjunto 13: 590 785 967
Conjunto 14: 785 967
Conjunto 15: 171 154 177
Conjunto 16: 154 177
Conjunto 17: 555 410 245
Conjunto 18: 410 245
Conjunto 19: 966 874
Conjunto 20: 287 645
Conjunto 21: 155 512
Conjunto 22: 885 709
Conjunto 23: 1013 1002
Conjunto 24: 952 261
Conjunto 25: 261 163
Conjunto 26: 596 360
Conjunto 27: 1084 160
Conjunto 28: 442 521 79 833
Conjunto 29: 521 79 833
Conjunto 30: 79 833 1006
Conjunto 31: 833 1006
Conjunto 32: 922 269
Conjunto 33: 853 612 695 453
Conjunto 34: 612 695 453
Conjunto 35: 695 453 530
Conjunto 36: 453 530
Conjunto 37: 8 877
Conjunto 38: 664 91
Conjunto 39: 488 620 860
Conjunto 40: 620 860
Conjunto 41: 860 388
Conjunto 42: 388 383
Conjunto 43: 383 938
Conjunto 44: 938 120 258
Conjunto 45: 120 258
Conjunto 46: 299 323 1067
Conjunto 47: 323 1067
Conjunto 48: 1067 340 221 801
Conjunto 49: 340 221 801
Conjunto 50: 221 801 205
Conjunto 51: 801 205
Conjunto 52: 924 818 553
Conjunto 53: 818 553 393
Conjunto 54: 553 393
Conjunto 55: 826 309
Conjunto 56: 791 70
Conjunto 57: 66 1095
Conjunto 58: 179 712 373
Conjunto 59: 712 373 92
Conjunto 60: 373 92
Conjunto 61: 92 298
Conjunto 62: 939 281 250
Conjunto 63: 281 250
Conjunto 64: 568 320
Conjunto 65: 320 566
Conjunto 66: 566 369 251
Conjunto 67: 369 251
Conjunto 68: 1010 1046 963
Conjunto 69: 1046 963
Conjunto 70: 192 1087 156
Conjunto 71: 1087 156
Conjunto 72: 639 809 627
Conjunto 73: 809 627 682 724 716
Conjunto 74: 627 682 724 716 204
Conjunto 75: 682 724 716 204
Conjunto 76: 724 716 204
Conjunto 77: 716 204
Conjunto 78: 204 65
Conjunto 79: 65 1064 816
Conjunto 80: 1064 816
Conjunto 81: 816 255 800 641
Conjunto 82: 255 800 641
Conjunto 83: 800 641
Conjunto 84: 641 267
Conjunto 85: 267 1088
Conjunto 86: 1088 127
Conjunto 87: 11 742
Conjunto 88: 750 235
Conjunto 89: 150 708 311 244 500
Conjunto 90: 708 311 244 500
Conjunto 91: 311 244 500
Conjunto 92: 244 500
Conjunto 93: 427 589 902 929
Conjunto 94: 589 902 929
Conjunto 95: 902 929 331
Conjunto 96: 929 331 233 69 191
Conjunto 97: 331 233 69 191
Conjunto 98: 233 69 191 728
Conjunto 99: 69 191 728
Conjunto 100: 191 728 1071
Conjunto 101: 728 1071
Conjunto 102: 1071 514
Conjunto 103: 514 574 126 397
Conjunto 104: 574 126 397
Conjunto 105: 126 397
Conjunto 106: 35 1036 1023 1092 730
Conjunto 107: 1036 1023 1092 730 949
Conjunto 108: 1023 1092 730 949
Conjunto 109: 1092 730 949
Conjunto 110: 730 949
Conjunto 111: 625 546 898 1080 696
Conjunto 112: 546 898 1080 696 459
Conjunto 113: 898 1080 696 459
Conjunto 114: 1080 696 459
Conjunto 115: 696 459
Conjunto 116: 921 1093 335 995
Conjunto 117: 1093 335 995
Conjunto 118: 335 995 398 1097
Conjunto 119: 995 398 1097
Conjunto 120: 398 1097 61 341 1030
Conjunto 121: 1097 61 341 1030
Conjunto 122: 61 341 1030 671 892 141
Conjunto 123: 341 1030 671 892 141
Conjunto 124: 1030 671 892 141
Conjunto 125: 671 892 141
Conjunto 126: 892 141
Conjunto 127: 632 294 414 16
Conjunto 128: 294 414 16
Conjunto 129: 414 16
Conjunto 130: 930 350 257 561
Conjunto 131: 350 257 561 629 624 137
Conjunto 132: 257 561 629 624 137
Conjunto 133: 561 629 624 137
Conjunto 134: 629 624 137 611 181
Conjunto 135: 624 137 611 181
Conjunto 136: 137 611 181 539
Conjunto 137: 611 181 539
Conjunto 138: 181 539
Conjunto 139: 539 428 1089
Conjunto 140: 428 1089 736 411 983
Conjunto 141: 1089 736 411 983 185
Conjunto 142: 736 411 983 185 573
Conjunto 143: 411 983 185 573
Conjunto 144: 983 185 573 954
Conjunto 145: 185 573 954
Conjunto 146: 573 954
Conjunto 147: 430 53
Conjunto 148: 53 389 1059
Conjunto 149: 389 1059 595
Conjunto 150: 1059 595
Conjunto 151: 131 722 64 704 973
Conjunto 152: 722 64 704 973 810
Conjunto 153: 64 704 973 810
Conjunto 154: 704 973 810
Conjunto 155: 973 810
Conjunto 156: 810 812 450 417
Conjunto 157: 812 450 417
Conjunto 158: 450 417
Conjunto 159: 417 978
Conjunto 160: 978 911 1062 819 89 259
Conjunto 161: 911 1062 819 89 259
Conjunto 162: 1062 819 89 259
Conjunto 163: 819 89 259 711
Conjunto 164: 89 259 711
Conjunto 165: 259 711
Conjunto 166: 711 662 562 543
Conjunto 167: 662 562 543
Conjunto 168: 562 543
Conjunto 169: 543 153
Conjunto 170: 153 97 607 989 158
Conjunto 171: 97 607 989 158 33 735
Conjunto 172: 607 989 158 33 735 438
Conjunto 173: 989 158 33 735 438 916
Conjunto 174: 158 33 735 438 916
Conjunto 175: 33 735 438 916 1083
Conjunto 176: 735 438 916 1083
Conjunto 177: 438 916 1083
Conjunto 178: 916 1083
Conjunto 179: 1083 2 310
Conjunto 180: 2 310
Conjunto 181: 798 1077 910 1040 433 103
Conjunto 182: 1077 910 1040 433 103 183
Conjunto 183: 910 1040 433 103 183 988
Conjunto 184: 1040 433 103 183 988
Conjunto 185: 433 103 183 988
Conjunto 186: 103 183 988 926 904
Conjunto 187: 183 988 926 904 523
Conjunto 188: 988 926 904 523
Conjunto 189: 926 904 523
Conjunto 190: 904 523
Conjunto 191: 523 253
Conjunto 192: 253 552 280 956
Conjunto 193: 552 280 956 933 1005
Conjunto 194: 280 956 933 1005
Conjunto 195: 956 933 1005 263
Conjunto 196: 933 1005 263
Conjunto 197: 1005 263
Conjunto 198: 240 870 365 657
Conjunto 199: 870 365 657
Conjunto 200: 365 657
...
